6
0 1
 C    0.006555593374    0.116948449405   -0.019527270046
 O   -0.966769046531   -0.810297110549   -0.189480159595
 H   -1.740801714107   -0.349273103539   -0.548929086221
 O   -0.100510408298    1.280635067543   -0.274465122250
 O    1.111521634017   -0.448016914445    0.475467938566
 H    0.960589897528   -1.397463191318    0.598564021365
