3
Step 1
O  -0.0839361  -0.134298  0
H  -0.0839361  1.3657  0
H  1.41606  0.765702  0
3
Step 2
O  -0.0293757  -0.0311924  0
H  -0.048918  1.28137  0
H  1.32648  0.746927  0
3
Step 3
O  0.0803707  0.131516  0
H  -0.204526  1.08582  0
H  1.23614  0.522375  0
3
Step 4
O  0.125043  0.0723842  0
H  -0.277835  0.78394  0
H  0.877471  0.263027  0
3
Step 5
O  -0.0464543  -0.0775218  0
H  -0.479147  0.699803  0
H  0.816472  0.128463  0
3
Step 6
O  0.000426056  -0.105898  0
H  -0.492573  0.775887  0
H  0.850156  0.148251  0
3
Step 7
O  -0.0669155  -0.0500375  0
H  -0.501991  0.795545  0
H  0.865753  0.199734  0
3
Step 8
O  -0.0227365  -0.0559138  0
H  -0.485175  0.79125  0
H  0.921972  0.176139  0
3
Step 9
O  -0.0289379  -0.072052  0
H  -0.475342  0.788125  0
H  0.90559  0.181972  0
3
Step 10
O  -0.0257482  -0.0582265  0
H  -0.477517  0.796996  0
H  0.909446  0.188389  0
3
Step 11
O  -0.0270119  -0.0613951  0
H  -0.478636  0.793317  0
H  0.90792  0.184948  0
3
Step 12
O  -0.0269839  -0.0615984  0
H  -0.478655  0.793095  0
H  0.907813  0.184721  0
